8
Coordinates from ORCA-job input
  C   0.92282291704493     -0.00359639295697      0.07589061356495
  H   0.51404960243628      0.38717911104986      1.00175021515222
  C   0.23581765618122      1.16942921001978     -1.24070668763733
  F   0.87664331294408      0.62186308197507     -2.33573177931503
  O   -0.95930964101745      1.04618673415234     -1.08398985137435
  H   0.54447415896995     -0.94878894602186     -0.29784848483370
  F   2.26398639717590      0.09369265887173      0.00767709952309
  H   0.83601280626508      2.02993065091005     -0.90222092607983
