8
Coordinates from ORCA-job input
  C   1.06461212986210      0.05203797415759      0.01793343502141
  C   0.54567359539619      0.50281865722768      1.37559531969671
  F   1.06951129172407      1.76933619611608      1.64399542197923
  O   -0.80140842704178      0.49717868140488      1.37222977734118
  H   0.68840009844829      0.73185212191834     -0.74786619166145
  H   0.73153549487779     -0.96329544074496     -0.19759973781625
  H   2.15413256387437      0.09378803002790      0.02499581469034
  H   0.87700325285895     -0.15725622010752      2.19136616074882