8

C        0.940926912      0.183717520     -0.119938936
C        0.424633820      0.632200215      1.230801867
F        1.545854851      1.287644513      1.694371897
O       -0.770403249      0.806267968      1.173637014
H        0.434523727      0.754796098     -0.899398305
H        0.752502661     -0.880251286     -0.264033415
H        2.010176085      0.383362007     -0.172562928
H        0.871897477     -0.267521085      2.333824142
