8

C        0.732000130     -0.109856184     -0.058842499
H        0.241590245      0.115098811      0.889529158
C        0.248787741      0.851641079     -1.138011068
F        0.826037466      0.596072295     -2.350511109
O       -0.935994796      1.033199945     -1.024244993
H        0.523279035     -1.136556621     -0.366369426
F        2.095418539      0.053748034      0.077992806
H        0.925390631      2.187320666     -0.985716715
