8
Coordinates from ORCA-job input
  C   1.15097661390169     -0.10863191482932     -0.09249341865683
  H   1.19004187331355      0.11577347392525      0.97524542033289
  C   0.55981903277942      1.00805043970440     -0.81610302754693
  F   0.69463112789459      2.27845908670786     -0.36475473390694
  O   -0.20792999344464      0.85721005619591     -1.91791862742567
  H   0.56748909700123     -1.01400814492673     -0.27030486236632
  F   2.47824722127676     -0.38284645240682     -0.50698470824394
  H   -0.11159079972267      1.65228958362941     -2.47523862518619