8

C        1.068915372      0.218191484      0.057335109
C        0.560806582      0.659564811      1.386663904
F        1.469078193      1.555574744      1.917825726
O       -0.231409053      1.398052410      0.493217512
H       -0.091278515      0.596018087     -0.459207486
H        1.286733823     -0.845664130      0.070076951
H        1.968404758      0.778962784     -0.178991770
H        0.277613755     -0.115661108      2.101177647
