8
Coordinates from ORCA-job input
  C   1.09867383582683     -0.27928546409502      0.00405293323870
  C   0.63580069941093     -0.13902095105670      1.43159491699075
  F   1.99112269590520      0.36494371483738      2.22050182813204
  O   -0.17020877747474     -0.77172504294150      2.02337692103021
  H   1.71257464199500      0.56531530967745     -0.29996874957733
  H   0.22377292467801     -0.38207893319304     -0.63811192328006
  H   1.69215544712247     -1.19508570564196     -0.04244130400932
  H   0.72022869953620      1.05781351241339      1.80171703847493