8
Coordinates from ORCA-job input
  C   0.74040054137365      0.18659762125520      0.27800941040489
  H   1.35187058358837     -0.47215787721614     -0.32893776283749
  C   0.07902594570523      1.34856204857174     -1.06118076532072
  F   -0.57744041262460      0.40292748219174     -1.82567821066248
  O   1.09499731922277      1.87998128880204     -1.45295850841318
  H   1.23522688964530      0.85662531367202      0.97314453496032
  F   -0.33271363768220     -0.42849514563460      0.80993992642186
  H   -0.66854354022856      1.81610266035793     -0.39949397655316