
8
Coordinates from ORCA-job input
  C   0.63351023676715     -0.03110629020665      0.23042620489528
  H   0.19759085839075      0.16112005750314      1.21249195547764
  C   0.00299295692922      0.93207338797948     -0.75699936845174
  F   0.95546673733676      0.72262415496940     -2.10409173581397
  O   -1.14280630572968      1.19928989970079     -0.89089376636717
  H   0.39465613341761     -1.04263067073612     -0.10713770025651
  F   1.99858392626572      0.13961259744519      0.28098048167812
  H   0.89861033762247      1.74186844634476     -1.13369052716164