
8
Coordinates from ORCA-job input
  C   0.83929303089611     -0.08803429703124     -0.17238512081289
  C   0.18063277264576      0.33329082153572      1.11617373481004
  F   1.10944543067702      1.59710745934889      1.62005995198163
  O   -0.96393412714803      0.30786849251329      1.41553795169203
  H   0.56051726422908      0.65537142837281     -0.92250664375863
  H   0.44492495760403     -1.06164707505242     -0.46387314577998
  H   1.92209329898349     -0.11549735881835     -0.07522790332577
  H   0.96592882911249      0.16999015113126      2.08167315919354